<?xml version="1.0" encoding="UTF-8"?>

<!-- generated on 2024-06-25 20:55:22 by Eclipse SUMO GUI Version 1.20.0
-->

<configuration>
    <input>
       <net-file value="single-intersection.net.xml"/>
        <route-files value="Tempo_Fixo.rou.xml"/>
    </input>
	<time>
        <begin value="0"/>
        <end value="7200"/>
    </time>
    <time-to-teleport value="-1"/> <!-- If the value is not positive, teleporting due to grid-lock is disabled.-->
</configuration>

