<nodes>
    <node id="n1" x="0.0" y="150.0" type="priority"/>
    <node id="s1" x="0.0" y="-150.0" type="priority"/>
    <node id="w1" x="-150.0" y="0.0" type="priority"/>
    <node id="t1" x="0.0" y="0.0" type="traffic_light"/>
    
    <node id="n2" x="150.0" y="150.0" type="priority"/>
    <node id="s2" x="150.0" y="-150.0" type="priority"/>
    <node id="t2" x="150.0" y="0.0" type="traffic_light"/>

    <node id="n3" x="300.0" y="150.0" type="priority"/>
    <node id="s3" x="300.0" y="-150.0" type="priority"/>
    <node id="t3" x="300.0" y="0.0" type="traffic_light"/>

    <node id="e1" x="450.0" y="0.0" type="priority"/>
</nodes>
